<?xml version="1.0" encoding="UTF-8"?>

<!-- generated on 2025-05-01 12:59:51 by Eclipse SUMO netedit Version 1.21.0
<neteditConfiguration xmlns:xsi="http://www.w3.org/2001/XMLSchema-instance" xsi:noNamespaceSchemaLocation="http://sumo.dlr.de/xsd/neteditConfiguration.xsd">

    <input>
        <sumo-net-file value="C:\Users\luoya\SlotBasedEnv\Sim\test.net.xml"/>
    </input>

    <output>
        <output-file value="C:\Users\luoya\SlotBasedEnv\Sim\test.net.xml"/>
    </output>

    <processing>
        <geometry.min-radius.fix.railways value="false"/>
        <geometry.max-grade.fix value="false"/>
        <offset.disable-normalization value="true"/>
        <lefthand value="1"/>
    </processing>

    <junctions>
        <no-turnarounds value="true"/>
        <junctions.corner-detail value="5"/>
        <junctions.limit-turn-speed value="5.50"/>
        <rectangular-lane-cut value="0"/>
    </junctions>

    <pedestrian>
        <walkingareas value="0"/>
    </pedestrian>

</neteditConfiguration>
-->

<net version="1.20" junctionCornerDetail="5" lefthand="true" limitTurnSpeed="5.50" xmlns:xsi="http://www.w3.org/2001/XMLSchema-instance" xsi:noNamespaceSchemaLocation="http://sumo.dlr.de/xsd/net_file.xsd">

    <location netOffset="0.00,100.00" convBoundary="0.00,0.00,1500.00,200.00" origBoundary="0.00,-100.00,1500.00,100.00" projParameter="!"/>

    <edge id=":-n2_0" function="internal">
        <lane id=":-n2_0_0" index="0" speed="22.22" length="8.00" width="3.20" shape="254.00,94.40 246.00,94.40"/>
        <lane id=":-n2_0_1" index="1" speed="27.78" length="8.00" width="3.20" shape="254.00,97.60 246.00,97.60"/>
    </edge>
    <edge id=":-n3_0" function="internal">
        <lane id=":-n3_0_0" index="0" speed="9.27" length="7.70" width="3.20" shape="496.51,91.20 494.36,90.96 493.00,90.22 491.84,89.00 490.28,87.30"/>
    </edge>
    <edge id=":-n3_1" function="internal">
        <lane id=":-n3_1_0" index="0" speed="16.67" length="7.84" width="3.20" shape="496.51,91.20 488.68,91.20"/>
        <lane id=":-n3_1_1" index="1" speed="22.22" length="7.84" width="3.20" shape="496.51,94.40 488.68,94.40"/>
        <lane id=":-n3_1_2" index="2" speed="27.78" length="7.84" width="3.20" shape="496.51,97.60 488.68,97.60"/>
    </edge>
    <edge id=":-n4_0" function="internal">
        <lane id=":-n4_0_0" index="0" speed="16.67" length="0.10" width="3.20" shape="750.00,91.20 750.00,91.20"/>
        <lane id=":-n4_0_1" index="1" speed="22.22" length="0.10" width="3.20" shape="750.00,94.40 750.00,94.40"/>
        <lane id=":-n4_0_2" index="2" speed="27.78" length="0.10" width="3.20" shape="750.00,97.60 750.00,97.60"/>
    </edge>
    <edge id=":-n5_0" function="internal">
        <lane id=":-n5_0_0" index="0" speed="12.42" length="8.79" width="3.20" shape="1014.88,87.44 1012.78,89.02 1011.32,90.20 1009.71,90.94 1007.21,91.20"/>
    </edge>
    <edge id=":-n5_1" function="internal">
        <lane id=":-n5_1_0" index="0" speed="16.67" length="8.80" width="3.20" shape="1016.02,91.20 1007.21,91.20"/>
        <lane id=":-n5_1_1" index="1" speed="22.22" length="8.80" width="3.20" shape="1016.02,94.40 1007.21,94.40"/>
        <lane id=":-n5_1_2" index="2" speed="27.78" length="8.80" width="3.20" shape="1016.02,97.60 1007.21,97.60"/>
    </edge>
    <edge id=":-n6_0" function="internal">
        <lane id=":-n6_0_0" index="0" speed="16.67" length="0.93" width="3.20" shape="1251.53,91.35 1251.08,91.26 1250.77,91.22 1250.46,91.20 1250.00,91.20"/>
        <lane id=":-n6_0_1" index="1" speed="22.22" length="0.93" width="3.20" shape="1250.92,94.49 1250.65,94.44 1250.46,94.41 1250.27,94.40 1250.00,94.40"/>
        <lane id=":-n6_0_2" index="2" speed="27.78" length="0.93" width="3.20" shape="1250.31,97.63 1250.22,97.61 1250.15,97.60 1250.09,97.60 1250.00,97.60"/>
    </edge>
    <edge id=":n2_0" function="internal">
        <lane id=":n2_0_0" index="0" speed="22.22" length="8.00" width="3.20" shape="246.00,105.60 254.00,105.60"/>
        <lane id=":n2_0_1" index="1" speed="27.78" length="8.00" width="3.20" shape="246.00,102.40 254.00,102.40"/>
    </edge>
    <edge id=":n3_0" function="internal">
        <lane id=":n3_0_0" index="0" speed="9.27" length="7.70" width="3.20" shape="490.28,112.70 491.84,111.00 493.00,109.78 494.36,109.04 496.51,108.80"/>
    </edge>
    <edge id=":n3_1" function="internal">
        <lane id=":n3_1_0" index="0" speed="16.67" length="7.84" width="3.20" shape="488.68,108.80 496.51,108.80"/>
        <lane id=":n3_1_1" index="1" speed="22.22" length="7.84" width="3.20" shape="488.68,105.60 496.51,105.60"/>
        <lane id=":n3_1_2" index="2" speed="27.78" length="7.84" width="3.20" shape="488.68,102.40 496.51,102.40"/>
    </edge>
    <edge id=":n4_0" function="internal">
        <lane id=":n4_0_0" index="0" speed="16.67" length="0.10" width="3.20" shape="750.00,108.80 750.00,108.80"/>
        <lane id=":n4_0_1" index="1" speed="22.22" length="0.10" width="3.20" shape="750.00,105.60 750.00,105.60"/>
        <lane id=":n4_0_2" index="2" speed="27.78" length="0.10" width="3.20" shape="750.00,102.40 750.00,102.40"/>
    </edge>
    <edge id=":n5_0" function="internal">
        <lane id=":n5_0_0" index="0" speed="12.42" length="8.79" width="3.20" shape="1007.21,108.80 1009.71,109.06 1011.32,109.80 1012.78,110.98 1014.88,112.56"/>
    </edge>
    <edge id=":n5_1" function="internal">
        <lane id=":n5_1_0" index="0" speed="16.67" length="8.80" width="3.20" shape="1007.21,108.80 1016.02,108.80"/>
        <lane id=":n5_1_1" index="1" speed="22.22" length="8.80" width="3.20" shape="1007.21,105.60 1016.02,105.60"/>
        <lane id=":n5_1_2" index="2" speed="27.78" length="8.80" width="3.20" shape="1007.21,102.40 1016.02,102.40"/>
    </edge>
    <edge id=":n6_0" function="internal">
        <lane id=":n6_0_0" index="0" speed="16.67" length="0.93" width="3.20" shape="1249.06,108.80 1249.16,108.80 1249.22,108.80 1249.28,108.81 1249.37,108.83"/>
        <lane id=":n6_0_1" index="1" speed="22.22" length="0.93" width="3.20" shape="1249.06,105.60 1249.34,105.60 1249.53,105.61 1249.72,105.64 1249.99,105.69"/>
        <lane id=":n6_0_2" index="2" speed="27.78" length="0.93" width="3.20" shape="1249.06,102.40 1249.53,102.40 1249.84,102.42 1250.16,102.46 1250.61,102.55"/>
    </edge>

    <edge id="-e1" from="-n2" to="-n1" priority="-1">
        <lane id="-e1_0" index="0" speed="16.67" length="246.00" width="3.20" shape="246.00,91.20 0.00,91.0"/>
        <lane id="-e1_1" index="1" speed="22.22" length="246.00" width="3.20" shape="246.00,94.40 0.00,94.40"/>
        <lane id="-e1_2" index="2" speed="27.78" length="246.00" width="3.20" shape="246.00,97.60 0.00,97.60"/>
    </edge>
    <edge id="-e2" from="-n3" to="-n2" priority="-1">
        <lane id="-e2_0" index="0" speed="16.67" length="234.68" width="3.20" shape="488.68,91.20 254.00,91.20"/>
        <lane id="-e2_1" index="1" speed="22.22" length="234.68" width="3.20" shape="488.68,94.40 254.00,94.40"/>
        <lane id="-e2_2" index="2" speed="27.78" length="234.68" width="3.20" shape="488.68,97.60 254.00,97.60"/>
    </edge>
    <edge id="-e3" from="-n4" to="-n3" priority="-1">
        <lane id="-e3_0" index="0" speed="16.67" length="253.49" width="3.20" shape="750.00,91.20 496.51,91.20"/>
        <lane id="-e3_1" index="1" speed="22.22" length="253.49" width="3.20" shape="750.00,94.40 496.51,94.40"/>
        <lane id="-e3_2" index="2" speed="27.78" length="253.49" width="3.20" shape="750.00,97.60 496.51,97.60"/>
    </edge>
    <edge id="-e4" from="-n5" to="-n4" priority="-1">
        <lane id="-e4_0" index="0" speed="16.67" length="257.21" width="3.20" shape="1007.21,91.20 750.00,91.20"/>
        <lane id="-e4_1" index="1" speed="22.22" length="257.21" width="3.20" shape="1007.21,94.40 750.00,94.40"/>
        <lane id="-e4_2" index="2" speed="27.78" length="257.21" width="3.20" shape="1007.21,97.60 750.00,97.60"/>
    </edge>
    <edge id="-e5" from="-n6" to="-n5" priority="-1">
        <lane id="-e5_0" index="0" speed="16.67" length="233.98" width="3.20" shape="1250.00,91.20 1016.02,91.20"/>
        <lane id="-e5_1" index="1" speed="22.22" length="233.98" width="3.20" shape="1250.00,94.40 1016.02,94.40"/>
        <lane id="-e5_2" index="2" speed="27.78" length="233.98" width="3.20" shape="1250.00,97.60 1016.02,97.60"/>
    </edge>
    <edge id="-e6" from="-n7" to="-n6" priority="-1">
        <lane id="-e6_0" index="0" speed="16.67" length="254.72" width="3.20" shape="1501.53,140.15 1251.53,91.35"/>
        <lane id="-e6_1" index="1" speed="22.22" length="254.72" width="3.20" shape="1500.92,143.29 1250.92,94.49"/>
        <lane id="-e6_2" index="2" speed="27.78" length="254.72" width="3.20" shape="1500.31,146.43 1250.31,97.63"/>
    </edge>
    <edge id="-off_ramp1" from="-n3" to="-off_ramp1" priority="-1">
        <lane id="-off_ramp1_0" index="0" speed="11.11" length="125.58" width="3.20" shape="490.28,87.30 401.13,-1.14"/>
    </edge>
    <edge id="-on_ramp1" from="-on_ramp1" to="-n5" priority="-1">
        <lane id="-on_ramp1_0" index="0" speed="11.11" length="160.93" width="3.20" shape="1149.12,-1.33 1014.88,87.44"/>
    </edge>
    <edge id="e1" from="n1" to="n2" priority="-1">
        <lane id="e1_0" index="0" speed="22.22" length="246.00" width="3.20" shape="0.00,105.60 246.00,105.60"/>
        <lane id="e1_1" index="1" speed="27.78" length="246.00" width="3.20" shape="0.00,102.40 246.00,102.40"/>
    </edge>
    <edge id="e2" from="n2" to="n3" priority="-1">
        <lane id="e2_0" index="0" speed="16.67" length="234.68" width="3.20" shape="254.00,108.80 488.68,108.80"/>
        <lane id="e2_1" index="1" speed="22.22" length="234.68" width="3.20" shape="254.00,105.60 488.68,105.60"/>
        <lane id="e2_2" index="2" speed="27.78" length="234.68" width="3.20" shape="254.00,102.40 488.68,102.40"/>
    </edge>
    <edge id="e3" from="n3" to="n4" priority="-1">
        <lane id="e3_0" index="0" speed="16.67" length="253.49" width="3.20" shape="496.51,108.80 750.00,108.80"/>
        <lane id="e3_1" index="1" speed="22.22" length="253.49" width="3.20" shape="496.51,105.60 750.00,105.60"/>
        <lane id="e3_2" index="2" speed="27.78" length="253.49" width="3.20" shape="496.51,102.40 750.00,102.40"/>
    </edge>
    <edge id="e4" from="n4" to="n5" priority="-1">
        <lane id="e4_0" index="0" speed="16.67" length="257.21" width="3.20" shape="750.00,108.80 1007.21,108.80"/>
        <lane id="e4_1" index="1" speed="22.22" length="257.21" width="3.20" shape="750.00,105.60 1007.21,105.60"/>
        <lane id="e4_2" index="2" speed="27.78" length="257.21" width="3.20" shape="750.00,102.40 1007.21,102.40"/>
    </edge>
    <edge id="e5" from="n5" to="n6" priority="-1">
        <lane id="e5_0" index="0" speed="16.67" length="233.05" width="3.20" shape="1016.02,108.80 1249.06,108.80"/>
        <lane id="e5_1" index="1" speed="22.22" length="233.05" width="3.20" shape="1016.02,105.60 1249.06,105.60"/>
        <lane id="e5_2" index="2" speed="27.78" length="233.05" width="3.20" shape="1016.02,102.40 1249.06,102.40"/>
    </edge>
    <edge id="e6" from="n6" to="n7" priority="-1">
        <lane id="e6_0" index="0" speed="16.67" length="253.86" width="3.20" shape="1249.37,108.83 1498.46,157.85"/>
        <lane id="e6_1" index="1" speed="22.22" length="253.86" width="3.20" shape="1249.99,105.69 1499.07,154.71"/>
        <lane id="e6_2" index="2" speed="27.78" length="253.86" width="3.20" shape="1250.61,102.55 1499.69,151.57"/>
    </edge>
    <edge id="off_ramp1" from="n5" to="off_ramp1" priority="-1">
        <lane id="off_ramp1_0" index="0" speed="11.11" length="160.93" width="3.20" shape="1014.88,112.56 1149.12,201.33"/>
    </edge>
    <edge id="on_ramp1" from="on_ramp1" to="n3" priority="-1">
        <lane id="on_ramp1_0" index="0" speed="11.11" length="125.58" width="3.20" shape="401.13,201.14 490.28,112.70"/>
    </edge>

    <junction id="-n1" type="dead_end" x="0.00" y="99.20" incLanes="-e1_0 -e1_1" intLanes="" shape="0.00,92.80 0.00,99.20"/>
    <junction id="-n2" type="priority" x="250.00" y="99.20" incLanes="-e2_0 -e2_1 -e2_2" intLanes=":-n2_0_0 :-n2_0_1" shape="254.00,89.60 254.00,99.20 246.00,99.20 246.00,92.80 249.03,91.97 250.97,90.43 252.21,89.84">
        <request index="0" response="00" foes="00" cont="0"/>
        <request index="1" response="00" foes="00" cont="0"/>
    </junction>
    <junction id="-n3" type="priority" x="500.00" y="99.20" incLanes="-e3_0 -e3_1 -e3_2" intLanes=":-n3_0_0 :-n3_1_0 :-n3_1_1 :-n3_1_2" shape="496.51,89.60 496.51,99.20 488.68,99.20 488.68,89.60 489.46,89.47 489.62,89.31 489.62,89.08 489.46,88.79 489.15,88.44 491.41,86.17 493.02,88.02 493.63,88.70 494.31,89.19 495.22,89.50">
        <request index="0" response="0000" foes="0000" cont="0"/>
        <request index="1" response="0000" foes="0000" cont="0"/>
        <request index="2" response="0000" foes="0000" cont="0"/>
        <request index="3" response="0000" foes="0000" cont="0"/>
    </junction>
    <junction id="-n4" type="priority" x="750.00" y="99.20" incLanes="-e4_0 -e4_1 -e4_2" intLanes=":-n4_0_0 :-n4_0_1 :-n4_0_2" shape="750.00,89.60 750.00,99.20 750.00,89.60">
        <request index="0" response="000" foes="000" cont="0"/>
        <request index="1" response="000" foes="000" cont="0"/>
        <request index="2" response="000" foes="000" cont="0"/>
    </junction>
    <junction id="-n5" type="priority" x="1000.00" y="99.20" incLanes="-on_ramp1_0 -e5_0 -e5_1 -e5_2" intLanes=":-n5_0_0 :-n5_1_0 :-n5_1_1 :-n5_1_2" shape="1014.00,86.10 1015.77,88.77 1016.02,89.60 1016.02,99.20 1007.21,99.20 1007.21,89.60 1009.96,89.16 1010.85,88.64 1011.68,87.95 1012.66,87.09">
        <request index="0" response="1110" foes="1110" cont="0"/>
        <request index="1" response="0000" foes="0001" cont="0"/>
        <request index="2" response="0000" foes="0001" cont="0"/>
        <request index="3" response="0000" foes="0001" cont="0"/>
    </junction>
    <junction id="-n6" type="priority" x="1250.00" y="99.20" incLanes="-e6_0 -e6_1 -e6_2" intLanes=":-n6_0_0 :-n6_0_1 :-n6_0_2" shape="1251.84,89.78 1250.00,99.20 1250.00,89.60 1250.69,89.61 1250.93,89.62 1251.16,89.65 1251.45,89.70">
        <request index="0" response="000" foes="000" cont="0"/>
        <request index="1" response="000" foes="000" cont="0"/>
        <request index="2" response="000" foes="000" cont="0"/>
    </junction>
    <junction id="-n7" type="dead_end" x="1500.00" y="148.00" incLanes="" intLanes="" shape="1500.00,148.00 1501.84,138.58"/>
    <junction id="-off_ramp1" type="dead_end" x="400.00" y="0.00" incLanes="-off_ramp1_0" intLanes="" shape="402.25,-2.27 400.00,-0.00"/>
    <junction id="-on_ramp1" type="dead_end" x="1150.00" y="0.00" incLanes="" intLanes="" shape="1150.00,-0.00 1148.23,-2.67"/>
    <junction id="n1" type="dead_end" x="0.00" y="100.80" incLanes="" intLanes="" shape="0.00,100.80 0.00,107.20"/>
    <junction id="n2" type="priority" x="250.00" y="100.80" incLanes="e1_0 e1_1" intLanes=":n2_0_0 :n2_0_1" shape="254.00,100.80 254.00,110.40 250.97,109.57 249.03,108.03 247.79,107.44 246.00,107.20 246.00,100.80">
        <request index="0" response="00" foes="00" cont="0"/>
        <request index="1" response="00" foes="00" cont="0"/>
    </junction>
    <junction id="n3" type="priority" x="500.00" y="100.80" incLanes="on_ramp1_0 e2_0 e2_1 e2_2" intLanes=":n3_0_0 :n3_1_0 :n3_1_1 :n3_1_2" shape="496.51,100.80 496.51,110.40 494.31,110.81 493.63,111.30 493.02,111.98 492.33,112.83 491.41,113.83 489.15,111.56 489.62,110.92 489.62,110.69 489.46,110.53 489.15,110.43 488.68,110.40 488.68,100.80">
        <request index="0" response="1110" foes="1110" cont="0"/>
        <request index="1" response="0000" foes="0001" cont="0"/>
        <request index="2" response="0000" foes="0001" cont="0"/>
        <request index="3" response="0000" foes="0001" cont="0"/>
    </junction>
    <junction id="n4" type="priority" x="750.00" y="100.80" incLanes="e3_0 e3_1 e3_2" intLanes=":n4_0_0 :n4_0_1 :n4_0_2" shape="750.00,100.80 750.00,110.40 750.00,100.80">
        <request index="0" response="000" foes="000" cont="0"/>
        <request index="1" response="000" foes="000" cont="0"/>
        <request index="2" response="000" foes="000" cont="0"/>
    </junction>
    <junction id="n5" type="priority" x="1000.00" y="100.80" incLanes="e4_0 e4_1 e4_2" intLanes=":n5_0_0 :n5_1_0 :n5_1_1 :n5_1_2" shape="1016.02,100.80 1016.02,110.40 1015.77,111.23 1014.00,113.90 1011.68,112.05 1010.85,111.36 1009.96,110.84 1008.82,110.51 1007.21,110.40 1007.21,100.80">
        <request index="0" response="0000" foes="0000" cont="0"/>
        <request index="1" response="0000" foes="0000" cont="0"/>
        <request index="2" response="0000" foes="0000" cont="0"/>
        <request index="3" response="0000" foes="0000" cont="0"/>
    </junction>
    <junction id="n6" type="priority" x="1250.00" y="100.80" incLanes="e5_0 e5_1 e5_2" intLanes=":n6_0_0 :n6_0_1 :n6_0_2" shape="1250.92,100.98 1249.06,110.40 1249.06,100.80 1249.76,100.81 1250.00,100.82 1250.24,100.85 1250.53,100.90">
        <request index="0" response="000" foes="000" cont="0"/>
        <request index="1" response="000" foes="000" cont="0"/>
        <request index="2" response="000" foes="000" cont="0"/>
    </junction>
    <junction id="n7" type="dead_end" x="1500.00" y="150.00" incLanes="e6_0 e6_1 e6_2" intLanes="" shape="1498.15,159.42 1500.00,150.00"/>
    <junction id="off_ramp1" type="dead_end" x="1150.00" y="200.00" incLanes="off_ramp1_0" intLanes="" shape="1148.23,202.67 1150.00,200.00"/>
    <junction id="on_ramp1" type="dead_end" x="400.00" y="200.00" incLanes="" intLanes="" shape="400.00,200.00 402.25,202.27"/>

    <connection from="-e2" to="-e1" fromLane="1" toLane="0" via=":-n2_0_0" dir="s" state="M"/>
    <connection from="-e2" to="-e1" fromLane="2" toLane="1" via=":-n2_0_1" dir="s" state="M"/>
    <connection from="-e3" to="-off_ramp1" fromLane="0" toLane="0" via=":-n3_0_0" dir="l" state="M"/>
    <connection from="-e3" to="-e2" fromLane="0" toLane="0" via=":-n3_1_0" dir="s" state="M"/>
    <connection from="-e3" to="-e2" fromLane="1" toLane="1" via=":-n3_1_1" dir="s" state="M"/>
    <connection from="-e3" to="-e2" fromLane="2" toLane="2" via=":-n3_1_2" dir="s" state="M"/>
    <connection from="-e4" to="-e3" fromLane="0" toLane="0" via=":-n4_0_0" dir="s" state="M"/>
    <connection from="-e4" to="-e3" fromLane="1" toLane="1" via=":-n4_0_1" dir="s" state="M"/>
    <connection from="-e4" to="-e3" fromLane="2" toLane="2" via=":-n4_0_2" dir="s" state="M"/>
    <connection from="-e5" to="-e4" fromLane="0" toLane="0" via=":-n5_1_0" dir="s" state="M"/>
    <connection from="-e5" to="-e4" fromLane="1" toLane="1" via=":-n5_1_1" dir="s" state="M"/>
    <connection from="-e5" to="-e4" fromLane="2" toLane="2" via=":-n5_1_2" dir="s" state="M"/>
    <connection from="-e6" to="-e5" fromLane="0" toLane="0" via=":-n6_0_0" dir="s" state="M"/>
    <connection from="-e6" to="-e5" fromLane="1" toLane="1" via=":-n6_0_1" dir="s" state="M"/>
    <connection from="-e6" to="-e5" fromLane="2" toLane="2" via=":-n6_0_2" dir="s" state="M"/>
    <connection from="-on_ramp1" to="-e4" fromLane="0" toLane="0" via=":-n5_0_0" dir="s" state="m"/>
    <connection from="e1" to="e2" fromLane="0" toLane="1" via=":n2_0_0" dir="s" state="M"/>
    <connection from="e1" to="e2" fromLane="1" toLane="2" via=":n2_0_1" dir="s" state="M"/>
    <connection from="e2" to="e3" fromLane="0" toLane="0" via=":n3_1_0" dir="s" state="M"/>
    <connection from="e2" to="e3" fromLane="1" toLane="1" via=":n3_1_1" dir="s" state="M"/>
    <connection from="e2" to="e3" fromLane="2" toLane="2" via=":n3_1_2" dir="s" state="M"/>
    <connection from="e3" to="e4" fromLane="0" toLane="0" via=":n4_0_0" dir="s" state="M"/>
    <connection from="e3" to="e4" fromLane="1" toLane="1" via=":n4_0_1" dir="s" state="M"/>
    <connection from="e3" to="e4" fromLane="2" toLane="2" via=":n4_0_2" dir="s" state="M"/>
    <connection from="e4" to="off_ramp1" fromLane="0" toLane="0" via=":n5_0_0" dir="L" state="M"/>
    <connection from="e4" to="e5" fromLane="0" toLane="0" via=":n5_1_0" dir="s" state="M"/>
    <connection from="e4" to="e5" fromLane="1" toLane="1" via=":n5_1_1" dir="s" state="M"/>
    <connection from="e4" to="e5" fromLane="2" toLane="2" via=":n5_1_2" dir="s" state="M"/>
    <connection from="e5" to="e6" fromLane="0" toLane="0" via=":n6_0_0" dir="s" state="M"/>
    <connection from="e5" to="e6" fromLane="1" toLane="1" via=":n6_0_1" dir="s" state="M"/>
    <connection from="e5" to="e6" fromLane="2" toLane="2" via=":n6_0_2" dir="s" state="M"/>
    <connection from="on_ramp1" to="e3" fromLane="0" toLane="0" via=":n3_0_0" dir="l" state="m"/>

    <connection from=":-n2_0" to="-e1" fromLane="0" toLane="0" dir="s" state="M"/>
    <connection from=":-n2_0" to="-e1" fromLane="1" toLane="1" dir="s" state="M"/>
    <connection from=":-n3_0" to="-off_ramp1" fromLane="0" toLane="0" dir="l" state="M"/>
    <connection from=":-n3_1" to="-e2" fromLane="0" toLane="0" dir="s" state="M"/>
    <connection from=":-n3_1" to="-e2" fromLane="1" toLane="1" dir="s" state="M"/>
    <connection from=":-n3_1" to="-e2" fromLane="2" toLane="2" dir="s" state="M"/>
    <connection from=":-n4_0" to="-e3" fromLane="0" toLane="0" dir="s" state="M"/>
    <connection from=":-n4_0" to="-e3" fromLane="1" toLane="1" dir="s" state="M"/>
    <connection from=":-n4_0" to="-e3" fromLane="2" toLane="2" dir="s" state="M"/>
    <connection from=":-n5_0" to="-e4" fromLane="0" toLane="0" dir="s" state="M"/>
    <connection from=":-n5_1" to="-e4" fromLane="0" toLane="0" dir="s" state="M"/>
    <connection from=":-n5_1" to="-e4" fromLane="1" toLane="1" dir="s" state="M"/>
    <connection from=":-n5_1" to="-e4" fromLane="2" toLane="2" dir="s" state="M"/>
    <connection from=":-n6_0" to="-e5" fromLane="0" toLane="0" dir="s" state="M"/>
    <connection from=":-n6_0" to="-e5" fromLane="1" toLane="1" dir="s" state="M"/>
    <connection from=":-n6_0" to="-e5" fromLane="2" toLane="2" dir="s" state="M"/>
    <connection from=":n2_0" to="e2" fromLane="0" toLane="1" dir="s" state="M"/>
    <connection from=":n2_0" to="e2" fromLane="1" toLane="2" dir="s" state="M"/>
    <connection from=":n3_0" to="e3" fromLane="0" toLane="0" dir="l" state="M"/>
    <connection from=":n3_1" to="e3" fromLane="0" toLane="0" dir="s" state="M"/>
    <connection from=":n3_1" to="e3" fromLane="1" toLane="1" dir="s" state="M"/>
    <connection from=":n3_1" to="e3" fromLane="2" toLane="2" dir="s" state="M"/>
    <connection from=":n4_0" to="e4" fromLane="0" toLane="0" dir="s" state="M"/>
    <connection from=":n4_0" to="e4" fromLane="1" toLane="1" dir="s" state="M"/>
    <connection from=":n4_0" to="e4" fromLane="2" toLane="2" dir="s" state="M"/>
    <connection from=":n5_0" to="off_ramp1" fromLane="0" toLane="0" dir="L" state="M"/>
    <connection from=":n5_1" to="e5" fromLane="0" toLane="0" dir="s" state="M"/>
    <connection from=":n5_1" to="e5" fromLane="1" toLane="1" dir="s" state="M"/>
    <connection from=":n5_1" to="e5" fromLane="2" toLane="2" dir="s" state="M"/>
    <connection from=":n6_0" to="e6" fromLane="0" toLane="0" dir="s" state="M"/>
    <connection from=":n6_0" to="e6" fromLane="1" toLane="1" dir="s" state="M"/>
    <connection from=":n6_0" to="e6" fromLane="2" toLane="2" dir="s" state="M"/>

</net>
