<?xml version="1.0" encoding="UTF-8"?>
<nodes>

    <!-- 正向节点 -->
    <node id="n1" x="0.0" y="0.8" type="priority"/>
    <node id="n2" x="250.0" y="0.8" type="priority"/>
    <node id="n3" x="500.0" y="0.8" type="priority"/>
    <node id="n4" x="750.0" y="0.8" type="priority"/>
    <node id="n5" x="1000.0" y="0.8" type="priority"/>
    <node id="n6" x="1250.0" y="0.8" type="priority"/>
    <node id="n7" x="1500.0" y="50.0" type="priority"/>

    <!-- 反向节点 -->
    <node id="-n1" x="0.0" y="-0.8" type="priority"/>
    <node id="-n2" x="250.0" y="-0.8" type="priority"/>
    <node id="-n3" x="500.0" y="-0.8" type="priority"/>
    <node id="-n4" x="750.0" y="-0.8" type="priority"/>
    <node id="-n5" x="1000.0" y="-0.8" type="priority"/>
    <node id="-n6" x="1250.0" y="-0.8" type="priority"/>
    <node id="-n7" x="1500.0" y="48.0" type="priority"/>

    <!-- 匝道节点 -->
    <node id="on_ramp1" x="400.0" y="100.0" type="priority"/>
    <node id="off_ramp1" x="1150.0" y="100.0" type="priority"/>

    <!-- 反向匝道入口 -->
    <node id="-on_ramp1" x="1150.0" y="-100.0" type="priority"/>
    <!-- 反向匝道出口 -->
    <node id="-off_ramp1" x="400.0" y="-100.0" type="priority"/>

</nodes>
