<?xml version="1.0" encoding="UTF-8"?>
<nodes>

    <!-- Forward direction nodes -->
    <node id="n1" x="0.0" y="0.8" type="priority"/>
    <node id="n2" x="250.0" y="0.8" type="priority"/>
    <node id="n3" x="500.0" y="0.8" type="priority"/>
    <node id="n4" x="750.0" y="0.8" type="priority"/>
    <node id="n5" x="1000.0" y="0.8" type="priority"/>
    <node id="n6" x="1250.0" y="0.8" type="priority"/>
    <node id="n7" x="1500.0" y="50.0" type="priority"/>

    <!-- Reverse direction nodes -->
    <node id="-n1" x="0.0" y="-0.8" type="priority"/>
    <node id="-n2" x="250.0" y="-0.8" type="priority"/>
    <node id="-n3" x="500.0" y="-0.8" type="priority"/>
    <node id="-n4" x="750.0" y="-0.8" type="priority"/>
    <node id="-n5" x="1000.0" y="-0.8" type="priority"/>
    <node id="-n6" x="1250.0" y="-0.8" type="priority"/>
    <node id="-n7" x="1500.0" y="48.0" type="priority"/>

    <!-- On-ramp and off-ramp nodes (forward direction) -->
    <node id="on_ramp1" x="400.0" y="100.0" type="priority"/>
    <node id="off_ramp1" x="1150.0" y="100.0" type="priority"/>

    <!-- On-ramp and off-ramp nodes (reverse direction) -->
    <node id="-on_ramp1" x="1150.0" y="-100.0" type="priority"/>
    <node id="-off_ramp1" x="400.0" y="-100.0" type="priority"/>

</nodes>
